<?xml version="1.0" encoding="UTF-8"?>

<!-- generated on 2021-11-08 11:10:11 by Eclipse SUMO netedit Version 1.10.0
<configuration xmlns:xsi="http://www.w3.org/2001/XMLSchema-instance" xsi:noNamespaceSchemaLocation="http://sumo.dlr.de/xsd/netconvertConfiguration.xsd">

    <input>
        <sumo-net-file value="C:\Users\Admin\Sumo\simulation_sumo\simulation.net.xml"/>
    </input>

    <output>
        <output-file value="C:\Users\Admin\Sumo\simulation_sumo\simulation.net.xml"/>
    </output>

    <processing>
        <geometry.min-radius.fix.railways value="false"/>
        <geometry.max-grade.fix value="false"/>
        <offset.disable-normalization value="true"/>
        <lefthand value="false"/>
    </processing>

    <junctions>
        <no-turnarounds value="true"/>
        <junctions.corner-detail value="5"/>
        <junctions.limit-turn-speed value="5.5"/>
        <rectangular-lane-cut value="false"/>
    </junctions>

    <pedestrian>
        <walkingareas value="false"/>
    </pedestrian>

    <netedit>
        <route-files value="C:\Users\Admin\Sumo\simulation_sumo\simulation.rou.xml"/>
    </netedit>

    <report>
        <aggregate-warnings value="5"/>
    </report>

</configuration>
-->

<routes xmlns:xsi="http://www.w3.org/2001/XMLSchema-instance" xsi:noNamespaceSchemaLocation="http://sumo.dlr.de/xsd/routes_file.xsd">
    <vType id="vType_0" vClass="truck"/>
    <vType id="vType_1" vClass="emergency"/>
    <vType id="vType_2" vClass="taxi"/>
    <flow id="flow_0" type="vType_0" begin="0.00" departLane="random" departSpeed="12.00" color="blue" from="0" to="-3" end="3600.00" vehsPerHour="1600.00"/>
    <flow id="flow_1" type="vType_2" begin="0.00" departLane="random" departSpeed="10.00" from="0" to="-2" end="3600.00" vehsPerHour="1500.00"/>
    <flow id="flow_10" type="vType_0" begin="0.00" departLane="random" departSpeed="10.00" color="orange" from="3" to="-2" end="3600.00" vehsPerHour="1349.83"/>
    <flow id="flow_11" type="vType_1" begin="0.00" departLane="random" departSpeed="10.00" color="red" from="3" to="-1" end="3600.00" vehsPerHour="1500.00"/>
    <flow id="flow_2" begin="0.00" departLane="random" departSpeed="15.00" color="white" from="0" to="-1" end="3600.00" vehsPerHour="1549.72"/>
    <flow id="flow_3" type="vType_0" begin="0.00" departLane="random" departSpeed="5.00" color="blue" from="1" to="-3" end="3600.00" vehsPerHour="1600.00"/>
    <flow id="flow_4" begin="0.00" departLane="random" departSpeed="5.00" color="green" from="1" to="-2" end="3600.00" vehsPerHour="1750.12"/>
    <flow id="flow_5" type="vType_1" begin="0.00" departLane="random" departSpeed="5.00" color="black" from="1" to="-0" end="3600.00" vehsPerHour="1400.23"/>
    <flow id="flow_6" type="vType_1" begin="0.00" departLane="random" departSpeed="10.00" color="red" from="2" to="-3" end="3600.00" vehsPerHour="1400.23"/>
    <flow id="flow_7" begin="0.00" departLane="random" departSpeed="10.00" color="grey" from="2" to="-0" end="3600.00" vehsPerHour="1800.00"/>
    <flow id="flow_8" type="vType_2" begin="0.00" departLane="random" departSpeed="10.00" color="orange" from="2" to="-1" end="3600.00" vehsPerHour="1500.00"/>
    <flow id="flow_9" type="vType_2" begin="0.00" departLane="random" departSpeed="10.00" from="3" to="-0" end="3600.00" vehsPerHour="1200.00"/>
</routes>
